# generated using pymatgen
data_Re2O7
_symmetry_space_group_name_H-M   'P 1'
_cell_length_a   5.55836400
_cell_length_b   12.74065800
_cell_length_c   15.56604400
_cell_angle_alpha   90.00000000
_cell_angle_beta   90.00000000
_cell_angle_gamma   90.00000000
_symmetry_Int_Tables_number   1
_chemical_formula_structural   Re2O7
_chemical_formula_sum   'Re16 O56'
_cell_volume   1102.34388097
_cell_formula_units_Z   8
loop_
 _symmetry_equiv_pos_site_id
 _symmetry_equiv_pos_as_xyz
  1  'x, y, z'
loop_
 _atom_type_symbol
 _atom_type_oxidation_number
  Re7+  7.0
  O2-  -2.0
loop_
 _atom_site_type_symbol
 _atom_site_label
 _atom_site_symmetry_multiplicity
 _atom_site_fract_x
 _atom_site_fract_y
 _atom_site_fract_z
 _atom_site_occupancy
  Re7+  Re0  1  0.06669800  0.02382100  0.63036400  1
  Re7+  Re1  1  0.67242400  0.02554900  0.35646400  1
  Re7+  Re2  1  0.81408000  0.21999000  0.13665800  1
  Re7+  Re3  1  0.56251900  0.23208700  0.63646500  1
  Re7+  Re4  1  0.06251900  0.26791300  0.36353500  1
  Re7+  Re5  1  0.31408000  0.28001000  0.86334200  1
  Re7+  Re6  1  0.17242400  0.47445100  0.64353600  1
  Re7+  Re7  1  0.56669800  0.47617900  0.36963600  1
  Re7+  Re8  1  0.93330200  0.52382100  0.86963600  1
  Re7+  Re9  1  0.32757600  0.52554900  0.14353600  1
  Re7+  Re10  1  0.18592000  0.71999000  0.36334200  1
  Re7+  Re11  1  0.43748100  0.73208700  0.86353500  1
  Re7+  Re12  1  0.93748100  0.76791300  0.13646500  1
  Re7+  Re13  1  0.68592000  0.78001000  0.63665800  1
  Re7+  Re14  1  0.82757600  0.97445100  0.85646400  1
  Re7+  Re15  1  0.43330200  0.97617900  0.13036400  1
  O2-  O16  1  0.48341400  0.00318400  0.26453100  1
  O2-  O17  1  0.96593800  0.01330000  0.95042900  1
  O2-  O18  1  0.01236400  0.05396000  0.52423200  1
  O2-  O19  1  0.57296800  0.04888000  0.84355300  1
  O2-  O20  1  0.23588700  0.07997500  0.12182700  1
  O2-  O21  1  0.72295400  0.08416500  0.13026700  1
  O2-  O22  1  0.76185100  0.12638300  0.66085600  1
  O2-  O23  1  0.26379600  0.12836500  0.66089900  1
  O2-  O24  1  0.25533900  0.16189400  0.36259800  1
  O2-  O25  1  0.76752400  0.16035500  0.36085600  1
  O2-  O26  1  0.05417300  0.20873900  0.85064700  1
  O2-  O27  1  0.51550500  0.21348800  0.52822500  1
  O2-  O28  1  0.45416100  0.23797400  0.95586200  1
  O2-  O29  1  0.00216600  0.24436600  0.22793000  1
  O2-  O30  1  0.50216600  0.25563400  0.77207000  1
  O2-  O31  1  0.95416100  0.26202600  0.04413800  1
  O2-  O32  1  0.01550500  0.28651200  0.47177500  1
  O2-  O33  1  0.55417300  0.29126100  0.14935300  1
  O2-  O34  1  0.26752400  0.33964500  0.63914400  1
  O2-  O35  1  0.75533900  0.33810600  0.63740200  1
  O2-  O36  1  0.76379600  0.37163500  0.33910100  1
  O2-  O37  1  0.26185100  0.37361700  0.33914400  1
  O2-  O38  1  0.22295400  0.41583500  0.86973300  1
  O2-  O39  1  0.73588700  0.42002500  0.87817300  1
  O2-  O40  1  0.07296800  0.45112000  0.15644700  1
  O2-  O41  1  0.51236400  0.44604000  0.47576800  1
  O2-  O42  1  0.46593800  0.48670000  0.04957100  1
  O2-  O43  1  0.98341400  0.49681600  0.73546900  1
  O2-  O44  1  0.51658600  0.50318400  0.23546900  1
  O2-  O45  1  0.03406200  0.51330000  0.54957100  1
  O2-  O46  1  0.98763600  0.55396000  0.97576800  1
  O2-  O47  1  0.42703200  0.54888000  0.65644700  1
  O2-  O48  1  0.76411300  0.57997500  0.37817300  1
  O2-  O49  1  0.27704600  0.58416500  0.36973300  1
  O2-  O50  1  0.23814900  0.62638300  0.83914400  1
  O2-  O51  1  0.73620400  0.62836500  0.83910100  1
  O2-  O52  1  0.74466100  0.66189400  0.13740200  1
  O2-  O53  1  0.23247600  0.66035500  0.13914400  1
  O2-  O54  1  0.94582700  0.70873900  0.64935300  1
  O2-  O55  1  0.48449500  0.71348800  0.97177500  1
  O2-  O56  1  0.54583900  0.73797400  0.54413800  1
  O2-  O57  1  0.99783400  0.74436600  0.27207000  1
  O2-  O58  1  0.49783400  0.75563400  0.72793000  1
  O2-  O59  1  0.04583900  0.76202600  0.45586200  1
  O2-  O60  1  0.98449500  0.78651200  0.02822500  1
  O2-  O61  1  0.44582700  0.79126100  0.35064700  1
  O2-  O62  1  0.73247600  0.83964500  0.86085600  1
  O2-  O63  1  0.24466100  0.83810600  0.86259800  1
  O2-  O64  1  0.23620400  0.87163500  0.16089900  1
  O2-  O65  1  0.73814900  0.87361700  0.16085600  1
  O2-  O66  1  0.77704600  0.91583500  0.63026700  1
  O2-  O67  1  0.26411300  0.92002500  0.62182700  1
  O2-  O68  1  0.92703200  0.95112000  0.34355300  1
  O2-  O69  1  0.48763600  0.94604000  0.02423200  1
  O2-  O70  1  0.53406200  0.98670000  0.45042900  1
  O2-  O71  1  0.01658600  0.99681600  0.76453100  1
