# generated using pymatgen
data_ReO3
_symmetry_space_group_name_H-M   'P 1'
_cell_length_a   5.36236400
_cell_length_b   5.36236400
_cell_length_c   3.79423600
_cell_angle_alpha   90.00000000
_cell_angle_beta   90.00000000
_cell_angle_gamma   90.00000000
_symmetry_Int_Tables_number   1
_chemical_formula_structural   ReO3
_chemical_formula_sum   'Re2 O6'
_cell_volume   109.10305762
_cell_formula_units_Z   2
loop_
 _symmetry_equiv_pos_site_id
 _symmetry_equiv_pos_as_xyz
  1  'x, y, z'
loop_
 _atom_type_symbol
 _atom_type_oxidation_number
  Re6+  6.0
  O2-  -2.0
loop_
 _atom_site_type_symbol
 _atom_site_label
 _atom_site_symmetry_multiplicity
 _atom_site_fract_x
 _atom_site_fract_y
 _atom_site_fract_z
 _atom_site_occupancy
  Re6+  Re0  1  0.50000000  0.50000000  0.50000000  1
  Re6+  Re1  1  0.00000000  0.00000000  0.50000000  1
  O2-  O2  1  0.73782000  0.23782000  0.50000000  1
  O2-  O3  1  0.76218000  0.73782000  0.50000000  1
  O2-  O4  1  0.23782000  0.26218000  0.50000000  1
  O2-  O5  1  0.26218000  0.76218000  0.50000000  1
  O2-  O6  1  0.50000000  0.50000000  0.00000000  1
  O2-  O7  1  0.00000000  0.00000000  0.00000000  1
