# generated using pymatgen
data_ReO3
_symmetry_space_group_name_H-M   'P 1'
_cell_length_a   6.56887197
_cell_length_b   6.56887197
_cell_length_c   6.56887197
_cell_angle_alpha   109.47122063
_cell_angle_beta   109.47122063
_cell_angle_gamma   109.47122063
_symmetry_Int_Tables_number   1
_chemical_formula_structural   ReO3
_chemical_formula_sum   'Re4 O12'
_cell_volume   218.19786725
_cell_formula_units_Z   4
loop_
 _symmetry_equiv_pos_site_id
 _symmetry_equiv_pos_as_xyz
  1  'x, y, z'
loop_
 _atom_type_symbol
 _atom_type_oxidation_number
  Re6+  6.0
  O2-  -2.0
loop_
 _atom_site_type_symbol
 _atom_site_label
 _atom_site_symmetry_multiplicity
 _atom_site_fract_x
 _atom_site_fract_y
 _atom_site_fract_z
 _atom_site_occupancy
  Re6+  Re0  1  0.00000000  0.00000000  0.50000000  1
  Re6+  Re1  1  0.00000000  0.50000000  0.00000000  1
  Re6+  Re2  1  0.50000000  0.00000000  0.00000000  1
  Re6+  Re3  1  0.50000000  0.50000000  0.50000000  1
  O2-  O4  1  0.74161600  0.75865100  0.50026600  1
  O2-  O5  1  0.74161600  0.24134900  0.98296500  1
  O2-  O6  1  0.25838400  0.75865100  0.01703500  1
  O2-  O7  1  0.24134900  0.49973400  0.25838400  1
  O2-  O8  1  0.25838400  0.24134900  0.49973400  1
  O2-  O9  1  0.75865100  0.01703500  0.25838400  1
  O2-  O10  1  0.98296500  0.74161600  0.24134900  1
  O2-  O11  1  0.75865100  0.50026600  0.74161600  1
  O2-  O12  1  0.01703500  0.25838400  0.75865100  1
  O2-  O13  1  0.24134900  0.98296500  0.74161600  1
  O2-  O14  1  0.50026600  0.74161600  0.75865100  1
  O2-  O15  1  0.49973400  0.25838400  0.24134900  1
